/*--------------------------------*- C++ -*----------------------------------*\
| =========                 |                                                 |
| \\      /  F ield         | OpenFOAM: The Open Source CFD Toolbox           |
|  \\    /   O peration     | Version:  2.3.0                                 |
|   \\  /    A nd           | Web:      www.OpenFOAM.org                      |
|    \\/     M anipulation  |                                                 |
\*---------------------------------------------------------------------------*/
FoamFile
{
    version     2.0;
    format      ascii;
    class       dictionary;
    location    "constant";
    object      transportProperties;
}
// * * * * * * * * * * * * * * * * * * * * * * * * * * * * * * * * * * * * * //

nu              nu  [ 0 2 -1 0 0 0 0 ] nu_val;
alpha        alpha  [ 0 2 -1 0 0 0 0 ] 0.14286; // thermal transport coefficient
rho            rho [ 1 -3 0 0 0 0 0 ] 1.0;

// ************************************************************************* //
